Version 4
SHEET 1 3056 836
WIRE 112 144 -176 144
WIRE 272 144 176 144
WIRE 416 144 272 144
WIRE 736 144 672 144
WIRE 848 144 736 144
WIRE 1072 144 912 144
WIRE 1136 144 1072 144
WIRE 736 176 736 144
WIRE -176 208 -176 144
WIRE -176 208 -352 208
WIRE -144 208 -176 208
WIRE -96 208 -144 208
WIRE -112 224 -176 224
WIRE -96 224 -112 224
WIRE 272 224 272 144
WIRE 1136 224 1136 144
WIRE -352 256 -352 208
WIRE 144 256 -32 256
WIRE 544 272 544 240
WIRE 736 272 736 256
WIRE 736 272 544 272
WIRE 736 288 736 272
WIRE 672 320 608 320
WIRE 672 368 672 320
WIRE 736 368 672 368
WIRE -352 384 -352 336
WIRE -176 384 -176 224
WIRE 272 384 272 288
WIRE 272 384 -176 384
WIRE 528 384 528 320
WIRE 528 384 272 384
WIRE 560 384 560 368
WIRE 560 384 528 384
WIRE 624 384 560 384
WIRE 1136 384 1136 304
WIRE 1136 384 624 384
WIRE 624 400 624 384
FLAG 1072 144 vbatt
FLAG -352 384 0
FLAG 144 336 0
FLAG -144 208 v+
FLAG -112 224 v-
FLAG 736 144 vout
FLAG 624 400 0
FLAG 272 144 vin
SYMBOL diode 112 160 R270
WINDOW 0 32 32 VTop 2
WINDOW 3 0 32 VBottom 2
SYMATTR InstName D1
SYMATTR Value DI_1N4007
SYMBOL cap 256 224 R0
SYMATTR InstName C1
SYMATTR Value 0.1µF
SYMBOL PowerProducts\\LT317A 544 144 R0
SYMATTR InstName U1
SYMBOL schottky 848 160 R270
WINDOW 0 32 32 VTop 2
WINDOW 3 0 32 VBottom 2
SYMATTR InstName D2
SYMATTR Value SS3P5
SYMATTR Description Diode
SYMATTR Type diode
SYMBOL res 720 160 R0
SYMATTR InstName R1
SYMATTR Value 240
SYMBOL res 720 272 R0
SYMATTR InstName R2
SYMATTR Value 1.9k
SYMBOL Misc\\battery 1136 208 R0
SYMATTR InstName V2
SYMATTR Value 12
SYMBOL testcell1 -64 240 R0
SYMATTR InstName U4
SYMATTR Value SEP300W
SYMBOL current -352 256 R0
WINDOW 123 0 0 Left 0
WINDOW 39 0 0 Left 0
SYMATTR InstName I1
SYMATTR Value PULSE(0 .064 0 1 1)
SYMBOL voltage 144 240 R0
SYMATTR InstName V3
SYMATTR Value {illu}
SYMBOL potentiometer 624 304 R90
SYMATTR InstName U2
SYMATTR Value Rtot=500 wiper=.64
TEXT 184 -128 Left 2 !.model DI_1N4007 d(IS=76.9p RS=42.0m BV=1.00k IBV=5.00u CJO=26.5p M=0.333 N=1.45 TT=4.32u)
TEXT 184 -96 Left 2 !.include potentiometer.sub
TEXT 184 -192 Left 2 !.tran 1
TEXT 1752 -104 Left 2 !*\n.subckt SEP300W 1 2 3; http://sunceco.com/wp-content/uploads/2017/01/SEP300-320.pdf\nxu1 1 2 3 PV_cplx voc=44.71 isc=8.947 vmp=37.23 imp=8.06 tk_voc=-0.0034 tk_isc=0.0005\n.ends\n*\n*PhotoVoltaic Cell model\n*\n* necessary parameters\n*voc - open circuit voltage\n*isc - short circuit current\n*vmp - maximum power voltage\n*imp maximum power current\n*tk_voc - open circuit voltage temperature coeffiecient\n*tk_isc - short circuit current temperature coefficient\n*\n.subckt PV_cplx v+ v- illu \nD1 N002 v- pvdiode2\nRsh N002 v- R=rsh_t\nRs N002 v+ R=rs_t\nBph v- N002 I=ipv_t*v(illu)/1000\nR5 illu 0 100meg\n.param voc_t voc*(1-tk_voc*(25-temp))\n.param isc_t isc*(1-tk_isc*(25-temp))\n.param vmp_t vmp*(1-tk_voc*(25-temp))\n.param imp_t imp*(1-tk_isc*(25-temp))\n.param rs_t (voc_t-vmp_t)/(16*imp_t) ; 2 instead of 16 in original source\n.param rsh_t 5*vmp_t/(isc_t-imp_t) ; 1 instead of 5 in original source\n.model PVDiode2 D(Is=io_t N=a_n Tnom=temp)\n.param io_t ((rs_t+rsh_t)*isc_t-voc_t)/(rsh_t*exp(voc_t/(a_n*vt_t)))\n.param vt_t (1.38e-23*(273+temp))/1.6e-19\n.param ipv_t isc_t*(rsh_t+rs_t)/rsh_t\n.param a_n 1.3*voc/0.7\n*\n.ends
TEXT 184 -160 Left 2 !.param illu 1000
